37
C	-3.60201571	-1.98327991	-0.87080617
C	-2.81464232	-1.23264180	-1.76852132
C	-1.62202189	-0.62820946	-1.33443960
C	-1.24073293	-0.79004913	0.00036558
C	-2.01618121	-1.52438191	0.86784406
C	-3.20273727	-2.13513286	0.46764024
C	-1.35301786	-1.49601554	2.14588100
O	-1.75258440	-2.05473564	3.20038987
O	-0.18465800	-0.74888800	2.04913563
C	-0.01947428	-0.25005704	0.71116393
C	1.24271094	-0.83452187	0.09724598
C	1.47917435	-2.21792685	0.15558279
C	2.60519518	-2.77460799	-0.45251322
C	3.51541832	-1.95871575	-1.13688654
C	3.28957803	-0.56842269	-1.20463084
C	2.15814978	-0.01220679	-0.58528808
O	1.95673767	1.36800179	-0.64502450
C	0.91103932	2.01302444	0.01712432
C	0.83569669	3.41280603	-0.01874996
C	-0.19569788	4.08487801	0.65385085
C	-1.15943166	3.34464944	1.36496485
C	-1.08337480	1.94947691	1.39219842
C	-0.05179962	1.26961767	0.72224401
I	-2.76146494	4.25984244	2.40764904
O	-0.24017415	5.47904711	0.60037079
I	2.29603402	4.51612504	-1.09056046
I	4.62894653	0.73253302	-2.22190491
O	4.62820854	-2.55101786	-1.73675621
I	2.90069440	-4.86536622	-0.33230036
H	-4.51854857	-2.44478667	-1.21448506
H	-3.13014819	-1.12110190	-2.79765162
H	-1.01306338	-0.05084403	-2.01794409
H	-3.79918290	-2.70887178	1.16495647
H	0.78061496	-2.86896142	0.66551821
H	-1.83987249	1.39203030	1.92971787
H	-0.95397925	6.02666720	1.06191538
H	5.32660497	-2.02795632	-2.24729638

39
C	-2.92920748	-1.64759221	1.65386739
C	-3.84722968	-1.61569392	0.60663437
C	-3.48445079	-1.07491646	-0.62832148
C	-2.19060219	-0.55727817	-0.83980956
C	-1.26293030	-0.58660380	0.23712803
C	-1.64569739	-1.13454921	1.47224664
C	0.10583903	-0.02187209	0.12787015
C	1.20420522	-0.86587888	-0.13086157
C	1.09152135	-2.25191317	-0.32169154
C	2.22487597	-3.04476425	-0.58487552
C	3.50348127	-2.43450393	-0.65680008
O	4.52974047	-3.13223415	-0.87799986
C	3.65474303	-1.05013621	-0.47937420
C	2.54203038	-0.24905591	-0.22158175
O	2.67842993	1.05772524	-0.05987614
C	1.65561933	1.86879796	0.18714259
C	1.90069706	3.23899756	0.34264262
C	0.84765439	4.12430591	0.60635587
C	-0.47532653	3.64460076	0.72309369
C	-0.71516650	2.26826810	0.56500086
C	0.33474685	1.36709759	0.29410940
N	-1.58139985	4.53216418	0.99786115
O	-1.39638420	5.74357082	1.23485359
O	-2.87112176	4.05174811	1.01848629
O	1.12796948	5.47991407	0.74697275
Br	3.69318369	3.90924670	0.19087742
Br	5.39546097	-0.24618004	-0.58897784
N	2.05716228	-4.46813587	-0.77415813
O	3.00199483	-5.18653024	-1.16100028
O	0.83419442	-5.06032025	-0.55421224
C	-1.85167091	-0.00427131	-2.17976983
O	-2.76462178	0.23872502	-3.01346175
O	-0.53480312	0.23575431	-2.55216187
H	-3.21389185	-2.06702903	2.61016665
H	-4.84378571	-2.01285816	0.75073935
H	-4.21916811	-1.07170264	-1.42389485
H	-0.94621509	-1.15789832	2.29935216
H	0.11913217	-2.72324176	-0.27541634
H	-1.72900888	1.90424364	0.65884383

37
C	-0.99196662	0.61558190	4.03491540
C	0.13800054	-0.06854928	3.54050959
C	0.33762214	-0.20422421	2.15563613
C	-0.60662138	0.35284364	1.28881329
C	-1.70545325	1.01826292	1.78165580
C	-1.93074809	1.16914866	3.14825460
C	-2.46818407	1.46328740	0.64405030
O	-3.54640523	2.11118402	0.68260025
O	-1.83266030	1.06832723	-0.52758797
C	-0.62660035	0.34765112	-0.22378214
C	-0.73676099	-1.07846494	-0.73950119
C	-1.87476134	-1.84871865	-0.44611931
C	-1.96395796	-3.17703733	-0.86641695
C	-0.91328970	-3.76332918	-1.58395975
C	0.23431381	-3.00202417	-1.88326135
C	0.31738447	-1.66444178	-1.46457204
O	1.45339664	-0.91883807	-1.78515922
C	1.57911450	0.43913142	-1.48779920
C	2.71384807	1.13537470	-1.92794971
C	2.85501801	2.50436617	-1.65770688
C	1.85009715	3.17734774	-0.93778347
C	0.72374375	2.47820789	-0.49521465
C	0.57478592	1.10651849	-0.76409436
Br	1.97457497	5.04456715	-0.52447751
O	3.99535076	3.16974401	-2.11207564
Br	4.07494741	0.20884420	-2.91161565
Br	1.70193293	-3.75497513	-2.86772642
O	-1.03241762	-5.09533046	-1.98576466
Br	-3.53378749	-4.18477883	-0.43820404
H	-1.13687058	0.71478523	5.10276350
H	0.85580713	-0.49166228	4.23103449
H	1.20246894	-0.72791391	1.76945260
H	-2.80127567	1.69607178	3.51664133
H	-2.69138180	-1.41982288	0.12078258
H	-0.03390601	3.00530422	0.07086590
H	4.15831101	4.15520615	-1.95180517
H	-0.31366966	-5.58164496	-2.50539849

43
C	4.93293470	-2.48171967	-0.56150474
C	5.24598739	-1.35704211	0.41940409
N	4.46265952	-0.15670109	0.09277866
C	5.12732476	1.04283389	-0.43688955
C	5.09407778	2.16902981	0.59055629
C	3.03560009	-0.15622374	0.29223415
C	2.17010029	0.11833898	-0.77959077
C	0.78461734	0.11862502	-0.58759135
C	0.25260465	-0.15582326	0.68634295
C	1.11314018	-0.42954400	1.75812160
C	2.49692939	-0.43011407	1.56047784
C	-1.13498418	-0.14769598	0.84687143
C	-1.96862568	0.12896600	-0.24954497
C	-1.35053485	0.39257207	-1.49424741
O	-2.03989544	0.64727964	-2.51717324
O	-0.02527379	0.37639538	-1.60807619
C	-3.44762174	0.13880450	-0.08478656
N	-4.31531067	0.39742495	-1.09760403
C	-5.60518023	0.34311101	-0.67771823
C	-6.71229121	0.56563186	-1.49845404
C	-7.99794230	0.47870895	-0.93604149
C	-8.16048574	0.17259208	0.43026243
C	-7.03906323	-0.04916239	1.24562643
C	-5.77788631	0.04319631	0.66279594
S	-4.27360676	-0.16625158	1.37028758
H	5.14899210	-2.15131234	-1.59965427
H	5.56090940	-3.36706147	-0.32777943
H	3.86408002	-2.77356751	-0.48543242
H	6.33582098	-1.14349896	0.37859640
H	5.02284439	-1.69253445	1.45382304
H	4.63046852	1.37712138	-1.37162596
H	6.18689741	0.82877339	-0.69473724
H	4.04510695	2.46168121	0.80832809
H	5.63490663	3.05355452	0.19315021
H	5.58487741	1.83980548	1.53094375
H	2.56928848	0.31364605	-1.76659950
H	0.71777356	-0.63879601	2.74491712
H	3.14882410	-0.62603348	2.40158141
H	-1.55647373	-0.35691058	1.82220338
H	-6.58584010	0.80062964	-2.54756478
H	-8.86842534	0.64798268	-1.55640600
H	-9.15453544	0.10808684	0.85325283
H	-7.15278931	-0.28479894	2.29575178

39
C	-5.14129937	0.37983443	2.40579190
N	-5.06132193	0.41248422	0.94013660
C	-6.30471077	0.36310455	0.16098312
C	-3.77460553	0.49272993	0.27243509
C	-2.59168437	0.09982061	0.93168058
C	-1.35552794	0.18000939	0.28252396
C	-1.26467686	0.65486972	-1.04319584
C	-2.43745661	1.04457548	-1.69707030
C	-3.67552537	0.96597523	-1.05264037
N	-0.07767130	0.75082385	-1.71825799
C	1.17181881	0.42662834	-1.27220223
C	2.26920308	0.59370134	-2.10936351
C	3.55835821	0.26775055	-1.67351933
C	3.81526627	-0.24551632	-0.36836817
N	5.04905681	-0.54838374	0.02398482
C	6.21111760	-0.36899247	-0.86921194
C	5.32313057	-1.08035707	1.37399131
C	2.70109603	-0.42125574	0.49819326
C	1.41158590	-0.10138425	0.07914590
S	0.06427924	-0.29210923	1.06860473
Cl	0.00000000	0.00000000	0.00000000
H	-4.51133667	1.18681384	2.83669977
H	-6.18049815	0.54209977	2.76227501
H	-4.79583299	-0.60618494	2.78072160
H	-6.50841148	1.35758272	-0.28808195
H	-7.17321218	0.08361513	0.79418375
H	-6.21782189	-0.40014145	-0.64128552
H	-2.62197889	-0.27970632	1.94402585
H	-2.39296154	1.41466047	-2.71430463
H	-4.55194346	1.28927099	-1.59665920
H	2.12945459	0.98040138	-3.11172821
H	4.35226661	0.42880648	-2.38839326
H	6.31265561	0.70047910	-1.15281433
H	6.09449226	-0.99786414	-1.77774295
H	7.16636901	-0.66810333	-0.38980659
H	5.00704855	-0.34533940	2.14494656
H	4.78887247	-2.04356290	1.52005310
H	6.40185369	-1.28058398	1.54150229
H	2.81055198	-0.80492815	1.50276714

45
C	0.10007077	-2.37140007	-1.93301588
C	-1.06167219	-2.05363705	-1.01266721
C	-2.11576555	-2.99627187	-0.92142483
C	-3.21340842	-2.76473522	-0.08416374
C	-3.28408655	-1.58028324	0.65821472
C	-2.27680839	-0.62530653	0.54657192
C	-1.15606592	-0.81656850	-0.29518660
C	-0.06345031	0.28138384	-0.41772143
C	-0.48703099	1.61138412	0.21018390
C	-0.43577193	1.96241196	1.57056385
C	-0.88812202	3.23114458	1.96791901
C	-1.37821443	4.13901582	1.01229699
C	-1.41598160	3.78013868	-0.34223281
C	-0.97606693	2.50691933	-0.69843023
S	-0.79039681	1.84744981	-2.25516648
O	-0.00781155	2.75466275	-3.16155360
O	-2.10487528	1.45131483	-2.86540018
O	0.12185220	0.48787201	-1.82220823
C	1.26583185	-0.16130217	0.23749333
C	1.22663966	-1.08063756	1.30919122
C	2.38899181	-1.56984970	1.89834746
C	3.64052334	-1.14351539	1.43646550
C	3.71750504	-0.18402613	0.41809906
C	2.53854678	0.36499072	-0.14779783
C	2.65989998	1.47769512	-1.16450391
Br	5.47588602	0.33029846	-0.18516809
O	4.82324704	-1.65281272	1.97820280
Br	2.21022652	-2.84045830	3.32322150
Br	-4.75431684	-1.20520760	1.83146558
O	-4.22303470	-3.72747281	-0.00960036
Br	-2.11112775	-4.62383213	-1.95672968
H	1.02362540	-1.81898901	-1.69053368
H	-0.18679149	-2.14629622	-2.98140901
H	0.38389244	-3.44057586	-1.85388852
H	-2.39818490	0.27247394	1.13069169
H	-0.06582964	1.26581051	2.31071931
H	-0.85787906	3.51148326	3.01273048
H	-1.71763107	5.11900383	1.32140019
H	-1.76766395	4.47703761	-1.09166886
H	0.28277355	-1.43614175	1.69922984
H	1.85247412	2.22202212	-1.03665667
H	2.63696198	1.05705728	-2.19128229
H	3.59247100	2.06112705	-1.03885089
H	4.84054054	-2.34899454	2.71189763
H	-5.04397177	-3.62438326	0.57235507

48
C	7.38889934	-1.05951368	0.18163281
C	7.08306710	0.01784683	-0.65447718
C	6.14776004	0.97552722	-0.25006655
C	5.51849313	0.86533142	1.00105888
C	5.82132560	-0.22734946	1.83038507
C	6.75721593	-1.18286669	1.42222869
C	4.48089170	1.87146841	1.41999687
N	3.15211642	1.44483708	0.96521280
C	2.70673540	1.81564650	-0.27266671
C	1.45923357	1.39281352	-0.73609812
C	0.65605741	0.57146201	0.06926564
C	1.13670840	0.19313252	1.33192602
C	2.38900610	0.63724862	1.76125783
C	-0.67303280	0.10916505	-0.40688716
C	-1.51837331	0.97268622	-1.11966428
C	-2.76518278	0.52122897	-1.55723623
N	-3.16924234	-0.76017346	-1.30633335
C	-2.36454436	-1.61411776	-0.60528818
C	-1.11150403	-1.19863439	-0.15022890
C	-4.49760579	-1.20486035	-1.74472836
C	-5.51713487	-0.92060619	-0.67505626
C	-6.18030192	0.31728339	-0.63932816
C	-7.09858679	0.59490766	0.37810863
C	-7.35349818	-0.35578224	1.37034262
C	-6.68781368	-1.58448767	1.34872932
C	-5.76879354	-1.86604324	0.33303960
H	8.11201074	-1.80065775	-0.13342247
H	7.56824114	0.10909777	-1.61767199
H	5.91371128	1.80068507	-0.91116568
H	5.33290462	-0.33948085	2.79038032
H	6.99019098	-2.02091972	2.06632078
H	4.49154947	1.99348288	2.52631753
H	4.73011167	2.87337630	1.00403020
H	3.31886709	2.43915495	-0.91356803
H	1.13598272	1.68948210	-1.72595097
H	0.54372097	-0.42900400	1.99036645
H	2.74572002	0.33166362	2.73778071
H	-1.22815371	1.99645549	-1.31961610
H	-3.41006202	1.20604430	-2.09517775
H	-2.68829120	-2.62647660	-0.39423960
H	-0.48536256	-1.90127406	0.38500575
H	-4.78454513	-0.69477153	-2.69152981
H	-4.48425303	-2.29256881	-1.98064766
H	-5.98577464	1.06601730	-1.39713615
H	-7.61003846	1.54855120	0.39925042
H	-8.06348855	-0.13883914	2.15793034
H	-6.88133919	-2.31760619	2.12109600
H	-5.25359796	-2.81856262	0.33290756

37
C	-0.10972952	2.13407501	-0.93202282
C	-0.73317161	0.93474927	-0.53785045
C	0.01432736	-0.22767852	-0.22825036
C	-0.67429710	-1.39618398	0.14854051
C	-0.03533616	-2.59980028	0.48536020
C	-0.78602143	-3.72033866	0.85416052
C	-2.18914069	-3.66588301	0.89921417
O	-2.84198366	-4.69023528	1.23405022
C	-2.87083926	-2.48220488	0.57650315
C	-2.15146421	-1.34253410	0.20410151
O	-2.78129195	-0.21760167	-0.09589272
C	-2.14979288	0.89529729	-0.45488401
C	-2.90863770	2.03979650	-0.75416598
C	-2.26383822	3.23192644	-1.14120725
C	-0.86699598	3.26784884	-1.22758440
I	0.13599665	5.03789073	-1.80737645
O	-2.98323159	4.38933385	-1.44486110
I	-5.02842162	1.91927623	-0.60796826
I	-4.99047361	-2.41270762	0.65451881
I	0.24109657	-5.50457578	1.34578681
C	1.50207541	-0.22127797	-0.29699161
C	2.27373638	0.30685630	0.76720212
C	3.68260922	0.33121090	0.65541269
C	4.30799675	-0.15622713	-0.50584644
C	3.53739869	-0.67034531	-1.56038574
C	2.13831204	-0.70318357	-1.45807287
Cl	1.17559986	-1.33455652	-2.80047378
Cl	4.32921086	-1.27675429	-3.01766201
Cl	6.06911918	-0.12801556	-0.63971179
Cl	4.68596064	0.91424946	1.99075007
C	1.60882336	0.83597586	1.98355263
O	1.96708827	1.93968458	2.47527401
O	0.57310039	0.12470478	2.58254878
H	0.96674928	2.20418818	-1.01541443
H	1.04360403	-2.68168288	0.46712916
H	-3.99195213	4.44229043	-1.40554914
H	0.10381440	0.48243239	3.40574338

42
C	-0.38047686	0.57312253	0.94994941
C	-1.75593128	0.38274622	0.78993554
C	-2.24729763	-0.29485136	-0.33356568
C	-1.35308217	-0.78077235	-1.29623526
C	0.02293290	-0.59101712	-1.13743521
C	0.51773896	0.08939297	-0.00941810
N	1.92090292	0.30192718	0.18528125
N	2.79052778	-0.10988414	-0.64781729
C	4.19380828	0.10258159	-0.45318186
C	5.09110448	-0.37770417	-1.41276920
C	6.46711755	-0.18777557	-1.25464405
C	6.96951231	0.48846913	-0.12917853
C	6.06459822	0.97047871	0.83439977
C	4.68882008	0.77965527	0.67464959
N	8.38668454	0.68270732	0.03124110
O	8.83854855	1.28294764	1.02853666
O	9.26866039	0.21010717	-0.91359874
N	-3.65960741	-0.49062634	-0.49869779
C	-4.41369701	0.44992303	-1.34010124
C	-4.53847470	1.82146251	-0.67018445
O	-5.17772881	1.71392494	0.57229946
C	-4.25451741	-1.76593438	-0.07340888
C	-4.27420364	-1.89097597	1.45283206
O	-4.99874970	-0.83968601	2.03057695
H	-0.01226624	1.09846892	1.82231462
H	-2.43999456	0.76169749	1.53867042
H	-1.72534984	-1.30530081	-2.16721190
H	0.69656701	-0.97441493	-1.89296813
H	4.72173890	-0.90099156	-2.28602271
H	7.13717840	-0.57041653	-2.01352251
H	6.42038630	1.49503699	1.71191398
H	4.01484033	1.16064443	1.43124677
H	-3.89600371	0.56813646	-2.31676789
H	-5.43372400	0.06577011	-1.55633464
H	-5.10548888	2.51139816	-1.33525125
H	-3.53001514	2.26059658	-0.52030996
H	-6.13932019	1.55410131	0.38391309
H	-3.66663990	-2.60776634	-0.49948952
H	-5.29401020	-1.86987162	-0.45215323
H	-3.23613525	-1.87243603	1.84569722
H	-4.72096515	-2.86921446	1.74142174
H	-5.95798821	-1.02565697	1.85463650

46
B	0.00000010	0.00000009	0.00000017
F	-0.31742045	-1.10177972	-0.89388432
F	-0.62241629	1.21818324	-0.49227239
F	1.44163585	0.18013350	0.05425240
F	-0.50179921	-0.29653711	1.33190415
C	-1.83172360	5.40096172	-0.67916429
C	-0.67451578	5.14744931	0.06043255
C	-0.22625060	3.83448840	0.23440640
C	-0.93528921	2.75777363	-0.33184652
C	-2.10070630	3.02672115	-1.07492307
C	-2.54373921	4.34180128	-1.24627566
C	-0.46176466	1.36155024	-0.14837637
C	-1.37175635	0.32280922	0.08793121
C	-0.89576706	-0.98931256	0.24547569
O	0.41414853	-1.22114900	0.19100856
C	1.32334274	-0.27142688	-0.01872259
C	0.90420500	1.05580506	-0.20800828
C	2.75703023	-0.65475335	-0.06211325
C	3.11148902	-1.97004858	-0.41600382
C	4.45414979	-2.35797184	-0.45481148
C	5.45764268	-1.44238125	-0.13250696
C	5.12017082	-0.13822515	0.23465508
C	3.77906919	0.25611773	0.27456500
C	-1.81196510	-2.13184260	0.48937815
C	-1.33433919	-3.26999750	1.16565875
C	-2.17488731	-4.36258501	1.39902010
C	-3.49761807	-4.33688612	0.95303156
C	-3.98106494	-3.22052141	0.26780941
C	-3.14551873	-2.12420264	0.03201458
H	-2.17669110	6.41811701	-0.81281804
H	-0.12561737	5.96887733	0.50259846
H	0.66388781	3.66010815	0.82575097
H	-2.65898660	2.22259872	-1.53769086
H	-3.43839162	4.53984643	-1.82240055
H	-2.42621166	0.54375265	0.18548768
H	1.61975737	1.83414579	-0.43687505
H	2.35036292	-2.69631190	-0.67372275
H	4.71638117	-3.37005535	-0.73496807
H	6.49639910	-1.74508027	-0.16153729
H	5.89859725	0.56697139	0.49616026
H	3.54908431	1.26367543	0.59334639
H	-0.31306566	-3.31078984	1.52416813
H	-1.79960602	-5.23024249	1.92618250
H	-4.14628857	-5.18438051	1.13320913
H	-5.00320699	-3.20711461	-0.08811209
H	-3.54074624	-1.28829179	-0.52899808

54
C	-6.39976110	-3.63271476	-0.64825584
C	-5.47614583	-2.53192075	-0.21797199
C	-5.90312125	-1.57428411	0.71346950
C	-5.03084277	-0.56953514	1.14215919
C	-3.71256934	-0.51955004	0.66499496
C	-3.28554195	-1.48317891	-0.26721378
C	-4.15829708	-2.48756500	-0.69577112
N	-2.83842961	0.53362718	1.10950311
C	-1.40605179	0.47131359	1.01538126
C	-0.65218541	1.53824705	0.45877344
C	0.76819179	1.47575934	0.48084298
C	1.40789299	0.34769050	1.05944640
C	0.63834096	-0.69488857	1.58520255
C	-0.74772543	-0.63398907	1.56348592
N	2.83661724	0.28443735	1.19842796
C	3.62792385	-0.84384649	0.78409147
C	4.92347771	-1.00413120	1.29782932
C	5.71678633	-2.08358413	0.89826667
C	5.22408799	-3.02192021	-0.02029194
C	3.94221075	-2.84715121	-0.56177495
C	3.14842581	-1.76798321	-0.16244116
C	6.09015579	-4.15727358	-0.47929720
C	1.55402375	2.58514358	-0.13632698
O	2.79367929	2.46265826	-0.33315137
C	0.88045349	3.83059024	-0.56213034
C	1.63051168	4.95085359	-0.96677071
C	0.98790674	6.11871015	-1.38296083
C	-0.40535473	6.18014175	-1.40434467
C	-1.16067474	5.07392149	-1.00961247
C	-0.52484881	3.89254670	-0.58370619
C	-1.31812210	2.71177048	-0.18040916
O	-2.55722877	2.69879895	-0.41479289
H	-7.45528347	-3.28667567	-0.63426648
H	-6.16090708	-3.96323391	-1.68158668
H	-6.29226936	-4.49538525	0.04186853
H	-6.91186722	-1.60384576	1.10670501
H	-5.38000539	0.16604870	1.85592464
H	-2.28241864	-1.45617069	-0.67212171
H	-3.80754929	-3.22724695	-1.40496883
H	-3.25669568	1.36086537	1.59277720
H	1.12035566	-1.54774712	2.04691334
H	-1.31693646	-1.44067920	2.00861701
H	3.31071453	1.07372580	1.69347842
H	5.31824765	-0.29236707	2.01197377
H	6.71522156	-2.18695836	1.30511040
H	3.55838405	-3.54397810	-1.29677946
H	2.16861669	-1.64872210	-0.60599697
H	6.78735586	-4.46912024	0.32737864
H	5.46967956	-5.03642877	-0.75528081
H	6.67945488	-3.83770491	-1.36397306
H	2.71302638	4.92577098	-0.95860434
H	1.57137555	6.97696482	-1.69045231
H	-0.90134778	7.08599214	-1.72840387
H	-2.24093743	5.14420248	-1.03465023

47
C	4.90837118	-2.61651410	-0.44213606
C	3.75798294	-1.66017400	-0.26044576
C	3.74785901	-0.45847918	-0.97809596
C	2.69645524	0.45110863	-0.84455845
C	1.61074623	0.18490996	0.03800254
C	1.61908165	-1.04997531	0.73209587
C	2.67183424	-1.96977213	0.58527855
C	2.63082225	-3.26713002	1.35304569
N	0.58786367	1.11386955	0.17864031
C	0.60715878	2.25055021	-0.59223942
N	-0.39002396	3.17376306	-0.54050647
C	-0.35751875	4.29833943	-1.30383394
O	-1.30232212	5.12699607	-1.22530890
N	0.68657984	4.53537834	-2.14957115
C	1.72520950	3.66229842	-2.26476246
O	2.67315192	3.91167124	-3.05784656
C	1.73089318	2.49449646	-1.50415895
N	2.72688965	1.58828934	-1.58240422
C	-0.54028355	0.92304407	1.12136390
C	-1.74322956	0.24665253	0.42990708
C	-2.91700539	0.06583415	1.43051962
C	-4.29311641	-0.20651404	0.76048221
C	-4.34658311	-1.49406463	-0.08119755
O	-5.64423388	-1.70028069	-0.57211042
O	-5.28732017	-0.27471619	1.75134003
O	-2.62322124	-0.88705937	2.42487576
O	-1.35524519	-0.99545241	-0.10033298
H	4.55994053	-3.52180723	-0.98177533
H	5.73390968	-2.15816388	-1.02734876
H	5.32045396	-2.91161202	0.54539673
H	4.56337539	-0.22464697	-1.65307236
H	0.80309791	-1.33818610	1.37441773
H	1.65705725	-3.41302789	1.86711411
H	2.77712809	-4.12406060	0.66277562
H	3.43201148	-3.27196995	2.12128282
H	0.68854203	5.40881240	-2.72486178
H	-0.86416671	1.90625268	1.52860725
H	-0.23066053	0.37217355	2.03103971
H	-2.09385452	0.91892987	-0.38893238
H	-3.03921805	1.03982610	1.95462605
H	-4.51868694	0.64390549	0.07394782
H	-3.63734181	-1.43632992	-0.93526025
H	-4.07223853	-2.37144087	0.53945278
H	-5.77768963	-1.04852560	-1.30932073
H	-5.47255754	0.65695945	2.04088785
H	-2.42410714	-1.74993081	1.98086342
H	-0.98579085	-0.82422708	-1.00588261

181
C	16.64069709	0.37881113	1.12471119
C	15.16058481	0.47093370	0.85903380
C	14.71200764	1.09931219	-0.32497369
C	13.34210711	1.19872754	-0.53930573
C	12.43262339	0.70424178	0.34635185
C	12.82489091	0.07664648	1.52835759
C	14.20828979	-0.03109353	1.80010130
C	14.65617779	-0.67235721	3.08815564
N	11.19554728	0.97308631	-0.11337933
C	11.40893874	1.63941314	-1.27669764
N	12.72229239	1.79081732	-1.57752141
C	9.89585753	0.67516402	0.50451887
C	9.14876851	-0.45131081	-0.21563877
C	7.70602482	-0.06308668	0.01368189
C	7.79184933	1.46238149	0.10308899
O	9.09230588	1.83417005	0.51243671
C	6.74305410	2.06383909	1.05259079
O	6.92927242	1.61616319	2.36879005
O	6.87668701	-0.42933506	-1.07736906
P	6.06645835	-1.88586605	-0.71727870
O	5.31327959	-2.33243057	-1.94947745
O	7.20255566	-3.07744169	-0.31442079
O	4.93567402	-1.58459274	0.53306463
C	5.00914002	-2.57365077	1.53748967
C	4.26006612	-3.84720910	1.10760055
C	4.40516815	-2.00455413	2.83265744
N	3.00082909	-1.63704919	2.65941230
C	2.58378266	-0.36408240	2.14407886
O	3.44527987	0.50476006	1.83464647
C	1.12001583	-0.02884526	2.07596796
C	0.71626749	0.80350913	0.84577997
C	0.38383505	0.04792524	-0.49166847
C	-0.09260428	1.13564144	-1.55528783
C	-1.58378959	0.81319429	-1.85016525
C	-2.66058225	1.89751345	-1.42066647
C	-2.88531148	3.14194699	-2.39590975
C	-4.40169506	3.54218778	-2.16763005
C	-4.99541372	2.21369111	-1.71680391
C	-6.29339563	1.80547388	-1.74764717
C	-6.70070687	0.55411148	-0.99087509
N	-5.81409349	-0.14099039	-0.34073140
C	-6.45922695	-1.11114496	0.45769764
C	-5.87253680	-2.13380066	1.09178766
C	-4.44155618	-2.54726394	1.05442210
N	-3.44115212	-1.77744313	0.74541452
C	-2.22320752	-2.52667725	0.88559622
C	-1.02838635	-2.16094850	0.31943433
C	-0.86640076	-0.84516024	-0.39787532
N	-1.83848953	-0.41963481	-1.12833624
C	0.12327979	-3.14654758	0.25086582
C	-2.51074376	-3.82776548	1.61781646
C	-4.03531638	-3.97729796	1.32886016
C	-4.84953658	-4.64418075	2.46554555
C	-4.25247311	-4.79153247	0.03402987
C	-2.18318020	-3.70330457	3.13560780
C	-0.68387395	-3.64477341	3.44639152
C	-0.43539170	-3.53815507	4.92312316
O	-0.83194861	-4.45319419	5.69239340
N	0.26724042	-2.41863593	5.46396084
C	-7.92751770	-0.85300329	0.52241971
C	-8.11376410	-0.03288444	-0.80564977
C	-9.27457367	0.98366365	-0.70371805
C	-8.41400625	-1.07051374	-1.94107281
C	-8.43635443	-0.50754008	-3.33499929
O	-7.36233972	-0.41316744	-3.98706238
N	-9.66339267	-0.07289691	-3.92342580
C	-8.21137862	-0.10964273	1.86873574
C	-9.64548003	-0.25270192	2.41484955
C	-10.04811335	-1.68712973	2.59879646
O	-9.38409765	-2.43605874	3.36744792
N	-11.16205712	-2.22549224	1.88493067
C	-7.33287958	2.63314204	-2.47110253
N	-3.96283273	1.28027158	-1.42840687
C	-4.60443778	4.72755468	-1.17091019
C	-6.06478238	5.06346276	-0.84939792
C	-6.16344294	6.31847508	-0.02689441
O	-5.48801938	6.43175900	1.03313384
N	-7.04717071	7.37295994	-0.41460494
C	-1.88368318	4.30180458	-2.12243068
C	-2.72607008	2.78912607	-3.92718011
C	-3.73786979	1.81962062	-4.50793310
O	-3.61839667	0.57975570	-4.32169354
N	-4.83787605	2.30131527	-5.28104872
C	-2.44645652	2.28712353	0.07110987
C	0.78339328	1.39830088	-2.82967709
C	0.99052647	0.27109460	-3.82098664
O	2.11329557	-0.30245271	-3.87113136
N	0.01965766	-0.04488922	-4.81545166
C	1.63067496	-0.72815179	-0.96666206
O	9.45235407	-0.46818887	-1.59027956
C	0.57894809	0.00000000	0.00000000
N	-0.57894809	0.00000000	0.00000000
Co	0.00000000	0.00000000	0.00000000
H	17.23359291	0.71963067	0.24891724
H	16.92279444	-0.67203021	1.33880384
H	16.90422785	1.01741766	1.99393117
H	15.40834514	1.51009079	-1.04690748
H	12.09235199	-0.30417554	2.22637392
H	15.32071449	0.02089013	3.64588081
H	13.79441004	-0.91694931	3.74528030
H	15.20572102	-1.61239461	2.87201436
H	10.61386929	2.01793498	-1.90450948
H	10.04136228	0.37425846	1.56270663
H	9.39082518	-1.43424073	0.25635948
H	7.37372532	-0.47265884	1.00081381
H	7.62538548	1.89786800	-0.90524483
H	5.72809983	1.76515252	0.71241531
H	6.79235357	3.17557535	1.01029672
H	7.67227526	2.15379820	2.75072253
H	6.06120788	-2.83045371	1.79204017
H	3.24227830	-3.59766421	0.74628654
H	4.18105181	-4.56007830	1.95526710
H	4.80572989	-4.35602884	0.28565945
H	4.48466618	-2.76651089	3.64124342
H	4.99170946	-1.12057579	3.16597124
H	2.27594969	-2.30329451	3.00789872
H	0.50749107	-0.93348661	2.11764784
H	0.87846856	0.54867245	2.99133054
H	-0.16647792	1.38509672	1.16489770
H	1.50073062	1.56552962	0.64533860
H	-0.06342054	2.13155498	-1.07215865
H	-1.70330613	0.56572077	-2.90685474
H	-4.83918222	3.87815219	-3.12414566
H	-6.54282067	-2.77723122	1.64192194
H	-0.14305729	-4.19382853	0.45885187
H	0.52674445	-3.18135971	-0.77977497
H	0.91930038	-2.87378840	0.96528315
H	-1.99320720	-4.71786339	1.20905677
H	-4.90161232	-3.99014500	3.36230205
H	-4.39452160	-5.61983198	2.74254067
H	-5.88994519	-4.86409316	2.14202641
H	-3.67351556	-4.35814823	-0.81230673
H	-3.92289802	-5.84383004	0.17442774
H	-5.32637122	-4.79623603	-0.25333830
H	-2.56613322	-4.59742732	3.66770873
H	-2.69102146	-2.80375477	3.55840061
H	-0.25210249	-2.76415028	2.95587558
H	-0.17468471	-4.55162122	3.05383518
H	0.69924013	-1.69361002	4.84361706
H	0.39188152	-2.32818735	6.49742847
H	-8.48498827	-1.81755312	0.49216619
H	-9.53225871	1.42786507	-1.67906187
H	-9.04590053	1.80594091	0.00328255
H	-10.19816972	0.46225687	-0.39415338
H	-7.65726170	-1.88519515	-1.92362916
H	-9.39463288	-1.55771894	-1.74476233
H	-9.66688596	0.36311296	-4.87244204
H	-10.56613719	-0.17473308	-3.40884972
H	-7.94380478	0.96545089	1.78827945
H	-7.54166021	-0.51260058	2.66247936
H	-10.37392609	0.27380528	1.77201373
H	-9.69148477	0.24615957	3.40666657
H	-11.44985755	-3.21782634	2.04035486
H	-11.71888034	-1.63158360	1.22965994
H	-6.90331548	3.36626025	-3.17451698
H	-7.95592143	1.99863839	-3.11604162
H	-7.97567560	3.17381620	-1.74839544
H	-4.07568793	4.56654749	-0.21559762
H	-4.16022262	5.63623193	-1.63068498
H	-6.62015294	5.21364846	-1.79661533
H	-6.52099691	4.23773015	-0.26632324
H	-7.10495820	8.24497890	0.15356115
H	-7.65860979	7.28072935	-1.25880741
H	-2.08523204	5.15950707	-2.80042831
H	-1.93387425	4.68889977	-1.08735522
H	-0.84254927	3.97011333	-2.30745045
H	-1.70965458	2.43344970	-4.14644747
H	-2.80806829	3.73136607	-4.51717340
H	-5.53305014	1.63198828	-5.67810331
H	-4.95513698	3.31939390	-5.47817769
H	-2.31550084	1.37104163	0.68378460
H	-3.34009132	2.75221166	0.52053496
H	-1.58731831	2.95951877	0.24156490
H	1.77852226	1.75870139	-2.49106314
H	0.36875611	2.25791006	-3.38792093
H	0.22872558	-0.77481156	-5.52874387
H	-0.82987399	0.53869247	-4.96378182
H	2.45306335	-0.03523361	-1.23016037
H	2.04896677	-1.37383509	-0.18025864
H	1.38353282	-1.38298313	-1.82008186
H	9.20520176	-1.37060921	-1.92404730

